
     RDKit          2D

 12 12  0  0  0  0  0  0  0  0999 V2000
    0.0000   -4.1250    0.0000 Br  0  0  0  0  0  0  0  0  0  0  0  0
    1.4314    0.0000    0.0000 O   0  0  0  0  0  0  0  0  0  0  0  0
    0.0000    0.0000    0.0000 O   0  0  0  0  0  0  0  0  0  0  0  0
    0.7136   -1.2334    0.0000 C   0  0  0  0  0  0  0  0  0  0  0  0
    0.7136   -0.4084    0.0000 C   0  0  0  0  0  0  0  0  0  0  0  0
    0.7136   -2.8834    0.0000 C   0  0  0  0  0  0  0  0  0  0  0  0
    0.0000   -1.6500    0.0000 C   0  0  0  0  0  0  0  0  0  0  0  0
    1.4314   -1.6500    0.0000 C   0  0  0  0  0  0  0  0  0  0  0  0
    0.0000   -2.4750    0.0000 C   0  0  0  0  0  0  0  0  0  0  0  0
    1.4314   -2.4750    0.0000 C   0  0  0  0  0  0  0  0  0  0  0  0
    0.7136   -3.7084    0.0000 C   0  0  0  0  0  0  0  0  0  0  0  0
    2.1450   -0.4084    0.0000 C   0  0  0  0  0  0  0  0  0  0  0  0
  1 11  1  0
  2  5  1  0
  2 12  1  0
  3  5  2  0
  4  5  1  0
  4  7  2  0
  4  8  1  0
  6  9  2  0
  6 10  1  0
  6 11  1  0
  7  9  1  0
  8 10  2  0
M  END
> <chembl_id>
CHEMBL3183843

> <chembl_pref_name>
None
